
#======================================================================
# CRYSTAL DATA
#----------------------------------------------------------------------
data_VESTA_phase_1

_chemical_name_common                  'C4'
_cell_length_a                         12.336457
_cell_length_b                         12.336457
_cell_length_c                         15.000000
_cell_angle_alpha                      90.000000
_cell_angle_beta                       90.000000
_cell_angle_gamma                      120.000000
_cell_volume                           1976.982419
_space_group_name_H-M_alt              'P 1'
_space_group_IT_number                 1

loop_
_space_group_symop_operation_xyz
   'x, y, z'

loop_
   _atom_site_label
   _atom_site_occupancy
   _atom_site_fract_x
   _atom_site_fract_y
   _atom_site_fract_z
   _atom_site_adp_type
   _atom_site_U_iso_or_equiv
   _atom_site_type_symbol
   C0         1.0     0.000000     0.000000     0.250000    Uiso  ? C
   C0         1.0     0.000000     0.200000     0.250000    Uiso  ? C
   C0         1.0     0.000000     0.400000     0.250000    Uiso  ? C
   C0         1.0     0.000000     0.600000     0.250000    Uiso  ? C
   C0         1.0     0.000000     0.800000     0.250000    Uiso  ? C
   C0         1.0     0.200000     0.000000     0.250000    Uiso  ? C
   C0         1.0     0.200000     0.200000     0.250000    Uiso  ? C
   C0         1.0     0.200000     0.400000     0.250000    Uiso  ? C
   C0         1.0     0.200000     0.600000     0.250000    Uiso  ? C
   C0         1.0     0.200000     0.800000     0.250000    Uiso  ? C
   C0         1.0     0.400000     0.000000     0.250000    Uiso  ? C
   C0         1.0     0.400000     0.200000     0.250000    Uiso  ? C
   C0         1.0     0.400000     0.400000     0.250000    Uiso  ? C
   C0         1.0     0.400000     0.600000     0.250000    Uiso  ? C
   C0         1.0     0.400000     0.800000     0.250000    Uiso  ? C
   C0         1.0     0.600000     0.000000     0.250000    Uiso  ? C
   C0         1.0     0.600000     0.200000     0.250000    Uiso  ? C
   C0         1.0     0.600000     0.400000     0.250000    Uiso  ? C
   C0         1.0     0.600000     0.600000     0.250000    Uiso  ? C
   C0         1.0     0.600000     0.800000     0.250000    Uiso  ? C
   C0         1.0     0.800000     0.000000     0.250000    Uiso  ? C
   C0         1.0     0.800000     0.200000     0.250000    Uiso  ? C
   C0         1.0     0.800000     0.400000     0.250000    Uiso  ? C
   C0         1.0     0.800000     0.600000     0.250000    Uiso  ? C
   C0         1.0     0.800000     0.800000     0.250000    Uiso  ? C
   C2         1.0     0.066667     0.133333     0.250000    Uiso  ? C
   C2         1.0     0.066667     0.333333     0.250000    Uiso  ? C
   C2         1.0     0.066667     0.533333     0.250000    Uiso  ? C
   C2         1.0     0.066667     0.733333     0.250000    Uiso  ? C
   C2         1.0     0.066667     0.933333     0.250000    Uiso  ? C
   C2         1.0     0.266667     0.133333     0.250000    Uiso  ? C
   C2         1.0     0.266667     0.333333     0.250000    Uiso  ? C
   C2         1.0     0.266667     0.533333     0.250000    Uiso  ? C
   C2         1.0     0.266667     0.733333     0.250000    Uiso  ? C
   C2         1.0     0.266667     0.933333     0.250000    Uiso  ? C
   C2         1.0     0.466667     0.133333     0.250000    Uiso  ? C
   C2         1.0     0.466667     0.333333     0.250000    Uiso  ? C
   C2         1.0     0.466667     0.533333     0.250000    Uiso  ? C
   C2         1.0     0.466667     0.733333     0.250000    Uiso  ? C
   C2         1.0     0.466667     0.933333     0.250000    Uiso  ? C
   C2         1.0     0.666667     0.133333     0.250000    Uiso  ? C
   C2         1.0     0.666667     0.333333     0.250000    Uiso  ? C
   C2         1.0     0.666667     0.533333     0.250000    Uiso  ? C
   C2         1.0     0.666667     0.733333     0.250000    Uiso  ? C
   C2         1.0     0.666667     0.933333     0.250000    Uiso  ? C
   C2         1.0     0.866667     0.133333     0.250000    Uiso  ? C
   C2         1.0     0.866667     0.333333     0.250000    Uiso  ? C
   C2         1.0     0.866667     0.533333     0.250000    Uiso  ? C
   C2         1.0     0.866667     0.733333     0.250000    Uiso  ? C
   C2         1.0     0.866667     0.933333     0.250000    Uiso  ? C
